Circuit: * /Users/dominikguz/Documents/git/github/rftools/Simulation/LTSPICE/BuildingBlocks/Filter/Bandpass/6m/BPF_3O.asc

Number of points per octave reduced from 10000 to 9375.

Date: Sun Jun 26 08:47:12 2016
Total elapsed time: 0.665 seconds.

tnom = 27
temp = 27
method = trap
totiter = 0
traniter = 0
tranpoints = 0
accept = 0
rejected = 0
matrix size = 3
fillins = 0
solver = Normal

